306 Power Project -kimi k3-v4/Phase6/results/v4_gen_3ph/fault_summary.csv
Fault_location,Fault_branch_sensor,Phase,Fault_enabled,Initial_window_start_s,Initial_window_end_exclusive_s,Initial_samples,Pre_event_current_RMS_A,Initial_current_waveform_RMS_A,Initial_peak_abs_current_A,Initial_phase_voltage_waveform_RMS_V,Full_window_fundamental_current_RMS_A,Fundamental_window_start_s,Fundamental_window_end_exclusive_s,Fundamental_samples,Initial_window_status,Fundamental_window_status
GEN,faultGEN,A,1,0.15,0.17,100,1.27018217422315e-05,156613.629251306,268549.106398621,1709.76680916926,107990.566539868,0.171,0.21,39,full_initial_cycle_measured,full_post_fault_DFT_windows_measured
GEN,faultGEN,B,1,0.15,0.17,100,1.27018073164206e-05,148663.484977641,252155.092423417,1846.25295033543,107569.041036212,0.171,0.21,39,full_initial_cycle_measured,full_post_fault_DFT_windows_measured
GEN,faultGEN,C,1,0.15,0.17,100,1.27017891349473e-05,111656.911069114,181814.939771751,2101.85044506409,106857.408694783,0.171,0.21,39,full_initial_cycle_measured,full_post_fault_DFT_windows_measured
